*Heading
** Job name: Job-1 Model name: Model-1
** Generated by: Abaqus/CAE Learning Edition 2025
*Preprint, echo=NO, model=NO, history=NO, contact=NO
**
** PARTS
**
*Part, name=Part-1
*Node
      1,           0.,  0.300000012
      2,           0.,          30.
      3,  -29.9985008,  0.300000012
      4,           0.,         -30.
      5,           0., -0.300000012
      6,  -29.9985008, -0.300000012
      7,          30.,           0.
      8,  0.300000012,           0.
      9,           0.,      2.15625
     10,           0.,   4.01249981
     11,           0.,    5.8687501
     12,           0.,    7.7249999
     13,           0.,   9.58125019
     14,           0.,      11.4375
     15,           0.,   13.2937498
     16,           0.,   15.1499996
     17,           0.,   17.0062504
     18,           0.,   18.8624992
     19,           0.,     20.71875
     20,           0.,   22.5750008
** ... 906 like lines cut
*Element, type=CPS3
1, 272, 308, 270
2, 306, 307, 250
176, 458, 413, 444
177, 461, 460, 400
*Element, type=CPS4R
  3,  14, 159, 167,  13
  4, 181,  45,  46, 180
  5, 195, 170, 169, 202
  6, 188,  12,  13, 167
  7,  11, 185, 186,  10
  8, 172, 196, 201, 173
  9,  10, 186, 190,   9
 10, 159,  14,  15, 168
 11, 223, 238, 235, 224
 12,  49, 177, 178,  48
 13, 160,  16,  17, 161
 14, 182, 191, 160, 161
 15,  16, 160, 168,  15
 16, 162,  18,  19, 163
 17, 192, 183, 213, 210
 18,  18, 162, 161,  17
 19,  21, 165, 164,  20
 20,  22, 166, 165,  21
 21,   2,  24, 303,  23
 22, 260, 245, 288, 286
** ... 839 like lines cut
*Nset, nset=Set-1, generate
   1,  926,    1
*Elset, elset=Set-1, generate
   1,  863,    1
** Section: Section-1
*Solid Section, elset=Set-1, material=Material-1
,
*End Part
**  
**
** ASSEMBLY
**
*Assembly, name=Assembly
**  
*Instance, name=Part-1-1, part=Part-1
*End Instance
**  
*Nset, nset=Set-1, instance=Part-1-1
   2,   3,   4,   6,   7,  24,  25,  26,  27,  28,  29,  30,  31,  32,  33,  34
  35,  36,  37,  38,  84,  85,  86,  87,  88,  89,  90,  91,  92,  93,  94,  95
  96,  97,  98,  99, 100, 101, 102, 103, 104, 105, 106, 107, 108, 109, 110, 111
 112, 113, 114, 115, 116, 117, 118, 119, 120, 121, 122, 123, 124, 125, 126, 127
 128,
*Nset, nset=_PickedSet5, internal, instance=Part-1-1
 2,
*Nset, nset=_PickedSet6, internal, instance=Part-1-1
 2,
*Nset, nset=_PickedSet7, internal, instance=Part-1-1
 3,
*Nset, nset=_PickedSet8, internal, instance=Part-1-1
 4,
*Nset, nset=_PickedSet9, internal, instance=Part-1-1
 6,
*Nset, nset=_PickedSet10, internal, instance=Part-1-1
 7,
*Nset, nset=_PickedSet11, internal, instance=Part-1-1
 24,
*Nset, nset=_PickedSet12, internal, instance=Part-1-1
 25,
*Nset, nset=_PickedSet13, internal, instance=Part-1-1
 26,
*Nset, nset=_PickedSet14, internal, instance=Part-1-1
 27,
*Nset, nset=_PickedSet15, internal, instance=Part-1-1
 28,
*Nset, nset=_PickedSet16, internal, instance=Part-1-1
 29,
*Nset, nset=_PickedSet17, internal, instance=Part-1-1
 30,
*Nset, nset=_PickedSet18, internal, instance=Part-1-1
 31,
*Nset, nset=_PickedSet19, internal, instance=Part-1-1
 32,
*Nset, nset=_PickedSet20, internal, instance=Part-1-1
 33,
*Nset, nset=_PickedSet21, internal, instance=Part-1-1
 34,
*Nset, nset=_PickedSet22, internal, instance=Part-1-1
 35,
*Nset, nset=_PickedSet23, internal, instance=Part-1-1
 36,
*Nset, nset=_PickedSet24, internal, instance=Part-1-1
** ... 93 like lines cut
*End Assembly
** 
** MATERIALS
** 
*Material, name=Material-1
*Elastic
120000., 0.33
** ----------------------------------------------------------------
** 
** STEP: Step-1
** 
*Step, name=Step-1, nlgeom=NO, inc=1000
*Static
1., 1., 1e-05, 1.
** 
** BOUNDARY CONDITIONS
** 
** Name: BC-0 Type: Displacement/Rotation
*Boundary
_PickedSet6, 1, 1, 0.000651436
_PickedSet6, 2, 2, 0.000651436
** Name: BC-1 Type: Displacement/Rotation
*Boundary
_PickedSet7, 1, 1, 6.90949e-06
_PickedSet7, 2, 2, 0.00138186
** Name: BC-2 Type: Displacement/Rotation
*Boundary
_PickedSet8, 1, 1, 0.000651436
_PickedSet8, 2, 2, -0.000651436
** Name: BC-3 Type: Displacement/Rotation
*Boundary
_PickedSet9, 1, 1, 6.90949e-06
_PickedSet9, 2, 2, -0.00138186
** Name: BC-4 Type: Displacement/Rotation
*Boundary
_PickedSet10, 1, 1, 0.000460635
_PickedSet10, 2, 2
** Name: BC-5 Type: Displacement/Rotation
*Boundary
_PickedSet11, 1, 1, 0.000649039
_PickedSet11, 2, 2, 0.000715654
** Name: BC-6 Type: Displacement/Rotation
*Boundary
_PickedSet12, 1, 1, 0.000641587
_PickedSet12, 2, 2, 0.00078078
** Name: BC-7 Type: Displacement/Rotation
*Boundary
_PickedSet13, 1, 1, 0.000628755
_PickedSet13, 2, 2, 0.000846118
** Name: BC-8 Type: Displacement/Rotation
*Boundary
_PickedSet14, 1, 1, 0.000610312
_PickedSet14, 2, 2, 0.000910929
** Name: BC-9 Type: Displacement/Rotation
*Boundary
_PickedSet15, 1, 1, 0.00058613
_PickedSet15, 2, 2, 0.000974443
** Name: BC-10 Type: Displacement/Rotation
*Boundary
_PickedSet16, 1, 1, 0.000556186
_PickedSet16, 2, 2, 0.00103587
** Name: BC-11 Type: Displacement/Rotation
*Boundary
_PickedSet17, 1, 1, 0.000520563
_PickedSet17, 2, 2, 0.00109444
** Name: BC-12 Type: Displacement/Rotation
*Boundary
_PickedSet18, 1, 1, 0.000479452
_PickedSet18, 2, 2, 0.00114936
** Name: BC-13 Type: Displacement/Rotation
*Boundary
_PickedSet19, 1, 1, 0.000433145
_PickedSet19, 2, 2, 0.00119991
** Name: BC-14 Type: Displacement/Rotation
*Boundary
_PickedSet20, 1, 1, 0.000382038
_PickedSet20, 2, 2, 0.00124539
** Name: BC-15 Type: Displacement/Rotation
*Boundary
_PickedSet21, 1, 1, 0.000326614
_PickedSet21, 2, 2, 0.00128516
** Name: BC-16 Type: Displacement/Rotation
*Boundary
_PickedSet22, 1, 1, 0.000267442
_PickedSet22, 2, 2, 0.00131866
** Name: BC-17 Type: Displacement/Rotation
*Boundary
_PickedSet23, 1, 1, 0.000205163
_PickedSet23, 2, 2, 0.00134542
** Name: BC-18 Type: Displacement/Rotation
*Boundary
_PickedSet24, 1, 1, 0.000140477
_PickedSet24, 2, 2, 0.00136504
** Name: BC-19 Type: Displacement/Rotation
*Boundary
_PickedSet25, 1, 1, 7.4133e-05
_PickedSet25, 2, 2, 0.00137725
** Name: BC-20 Type: Displacement/Rotation
*Boundary
_PickedSet26, 1, 1, 7.4133e-05
_PickedSet26, 2, 2, -0.00137725
** Name: BC-21 Type: Displacement/Rotation
*Boundary
_PickedSet27, 1, 1, 0.000140477
_PickedSet27, 2, 2, -0.00136504
** Name: BC-22 Type: Displacement/Rotation
*Boundary
_PickedSet28, 1, 1, 0.000205163
_PickedSet28, 2, 2, -0.00134542
** Name: BC-23 Type: Displacement/Rotation
*Boundary
_PickedSet29, 1, 1, 0.000267442
_PickedSet29, 2, 2, -0.00131866
** Name: BC-24 Type: Displacement/Rotation
*Boundary
_PickedSet30, 1, 1, 0.000326614
_PickedSet30, 2, 2, -0.00128516
** Name: BC-25 Type: Displacement/Rotation
*Boundary
_PickedSet31, 1, 1, 0.000382038
_PickedSet31, 2, 2, -0.00124539
** Name: BC-26 Type: Displacement/Rotation
*Boundary
_PickedSet32, 1, 1, 0.000433145
_PickedSet32, 2, 2, -0.00119991
** Name: BC-27 Type: Displacement/Rotation
*Boundary
_PickedSet33, 1, 1, 0.000479452
_PickedSet33, 2, 2, -0.00114936
** Name: BC-28 Type: Displacement/Rotation
*Boundary
_PickedSet34, 1, 1, 0.000520563
_PickedSet34, 2, 2, -0.00109444
** Name: BC-29 Type: Displacement/Rotation
*Boundary
_PickedSet35, 1, 1, 0.000556186
_PickedSet35, 2, 2, -0.00103587
** Name: BC-30 Type: Displacement/Rotation
*Boundary
_PickedSet36, 1, 1, 0.00058613
_PickedSet36, 2, 2, -0.000974443
** Name: BC-31 Type: Displacement/Rotation
*Boundary
_PickedSet37, 1, 1, 0.000610312
_PickedSet37, 2, 2, -0.000910929
** Name: BC-32 Type: Displacement/Rotation
*Boundary
_PickedSet38, 1, 1, 0.000628755
_PickedSet38, 2, 2, -0.000846118
** Name: BC-33 Type: Displacement/Rotation
*Boundary
_PickedSet39, 1, 1, 0.000641587
_PickedSet39, 2, 2, -0.00078078
** Name: BC-34 Type: Displacement/Rotation
*Boundary
_PickedSet40, 1, 1, 0.000649039
_PickedSet40, 2, 2, -0.000715654
** Name: BC-35 Type: Displacement/Rotation
*Boundary
_PickedSet41, 1, 1, 0.000649162
_PickedSet41, 2, 2, -0.000588366
** Name: BC-36 Type: Displacement/Rotation
*Boundary
_PickedSet42, 1, 1, 0.000642684
_PickedSet42, 2, 2, -0.000527437
** Name: BC-37 Type: Displacement/Rotation
*Boundary
_PickedSet43, 1, 1, 0.000632569
_PickedSet43, 2, 2, -0.000469145
** Name: BC-38 Type: Displacement/Rotation
*Boundary
_PickedSet44, 1, 1, 0.000619438
_PickedSet44, 2, 2, -0.000413895
** Name: BC-39 Type: Displacement/Rotation
*Boundary
_PickedSet45, 1, 1, 0.00060395
_PickedSet45, 2, 2, -0.000361994
** Name: BC-40 Type: Displacement/Rotation
*Boundary
_PickedSet46, 1, 1, 0.00058679
_PickedSet46, 2, 2, -0.000313646
** Name: BC-41 Type: Displacement/Rotation
*Boundary
_PickedSet47, 1, 1, 0.000568651
_PickedSet47, 2, 2, -0.000268952
** Name: BC-42 Type: Displacement/Rotation
*Boundary
_PickedSet48, 1, 1, 0.000550218
_PickedSet48, 2, 2, -0.000227908
** Name: BC-43 Type: Displacement/Rotation
*Boundary
_PickedSet49, 1, 1, 0.000532155
_PickedSet49, 2, 2, -0.000190408
** Name: BC-44 Type: Displacement/Rotation
*Boundary
_PickedSet50, 1, 1, 0.000515088
_PickedSet50, 2, 2, -0.00015625
** Name: BC-45 Type: Displacement/Rotation
*Boundary
_PickedSet51, 1, 1, 0.000499591
_PickedSet51, 2, 2, -0.000125141
** Name: BC-46 Type: Displacement/Rotation
*Boundary
_PickedSet52, 1, 1, 0.000486174
_PickedSet52, 2, 2, -9.6706e-05
** Name: BC-47 Type: Displacement/Rotation
*Boundary
_PickedSet53, 1, 1, 0.000475269
_PickedSet53, 2, 2, -7.04995e-05
** Name: BC-48 Type: Displacement/Rotation
*Boundary
_PickedSet54, 1, 1, 0.000467225
_PickedSet54, 2, 2, -4.60176e-05
** Name: BC-49 Type: Displacement/Rotation
*Boundary
_PickedSet55, 1, 1, 0.000462295
_PickedSet55, 2, 2, -2.27111e-05
** Name: BC-50 Type: Displacement/Rotation
*Boundary
_PickedSet56, 1, 1, 0.000462295
_PickedSet56, 2, 2, 2.27111e-05
** Name: BC-51 Type: Displacement/Rotation
*Boundary
_PickedSet57, 1, 1, 0.000467225
_PickedSet57, 2, 2, 4.60176e-05
** Name: BC-52 Type: Displacement/Rotation
*Boundary
_PickedSet58, 1, 1, 0.000475269
_PickedSet58, 2, 2, 7.04995e-05
** Name: BC-53 Type: Displacement/Rotation
*Boundary
_PickedSet59, 1, 1, 0.000486174
_PickedSet59, 2, 2, 9.6706e-05
** Name: BC-54 Type: Displacement/Rotation
*Boundary
_PickedSet60, 1, 1, 0.000499591
_PickedSet60, 2, 2, 0.000125141
** Name: BC-55 Type: Displacement/Rotation
*Boundary
_PickedSet61, 1, 1, 0.000515088
_PickedSet61, 2, 2, 0.00015625
** Name: BC-56 Type: Displacement/Rotation
*Boundary
_PickedSet62, 1, 1, 0.000532155
_PickedSet62, 2, 2, 0.000190408
** Name: BC-57 Type: Displacement/Rotation
*Boundary
_PickedSet63, 1, 1, 0.000550218
_PickedSet63, 2, 2, 0.000227908
** Name: BC-58 Type: Displacement/Rotation
*Boundary
_PickedSet64, 1, 1, 0.000568651
_PickedSet64, 2, 2, 0.000268952
** Name: BC-59 Type: Displacement/Rotation
*Boundary
_PickedSet65, 1, 1, 0.00058679
_PickedSet65, 2, 2, 0.000313646
** Name: BC-60 Type: Displacement/Rotation
*Boundary
_PickedSet66, 1, 1, 0.00060395
_PickedSet66, 2, 2, 0.000361994
** Name: BC-61 Type: Displacement/Rotation
*Boundary
_PickedSet67, 1, 1, 0.000619438
_PickedSet67, 2, 2, 0.000413895
** Name: BC-62 Type: Displacement/Rotation
*Boundary
_PickedSet68, 1, 1, 0.000632569
_PickedSet68, 2, 2, 0.000469145
** Name: BC-63 Type: Displacement/Rotation
*Boundary
_PickedSet69, 1, 1, 0.000642684
_PickedSet69, 2, 2, 0.000527437
** Name: BC-64 Type: Displacement/Rotation
*Boundary
_PickedSet70, 1, 1, 0.000649162
_PickedSet70, 2, 2, 0.000588366
** 
** OUTPUT REQUESTS
** 
*Restart, write, frequency=0
** 
** FIELD OUTPUT: F-Output-1
** 
*Output, field, variable=PRESELECT
** 
** HISTORY OUTPUT: H-Output-1
** 
*Output, history, variable=PRESELECT
*End Step
